OPT_V10/Two_days_MCY3_MIQCPM1/powerflow_results_t44.txt
Pandapower Network Debug Info
==================================================

BUS:
       vm_pu  va_degree      p_mw    q_mvar
0   0.992498   0.138117  0.001012  0.001010
1   0.987747   0.224077  0.001559  0.002010
2   0.983348   0.314330  0.002152  0.003370
3   0.988470   0.231192  0.002549  0.004375
4   0.999883   0.000707  0.010375  0.009125
5   0.999870   0.000758  0.012189  0.007856
6   0.999859   0.000876  0.011268  0.012984
7   0.999928   0.000548  0.000000  0.000000
8   0.999928   0.000555  0.000000  0.000000
9   1.000000   0.000000 -0.041269 -0.045843
10  1.000000   0.000006  0.000000  0.000000
--------------------------------------------------

LINE:
   p_from_mw  q_from_mvar   p_to_mw  q_to_mvar         pl_mw       ql_mvar  i_from_ka   i_to_ka      i_ka  vm_from_pu  va_from_degree  vm_to_pu  va_to_degree  loading_percent
0   0.041259     0.041843 -0.041256  -0.041840  3.377636e-06  2.633598e-06   0.002262  0.002262  0.002262    1.000000        0.000006  0.999928      0.000548         0.983394
1   0.033834     0.029967 -0.033832  -0.029965  1.579842e-06  1.231829e-06   0.001740  0.001740  0.001740    0.999928        0.000548  0.999883      0.000707         0.756411
2   0.007412     0.010874 -0.007331  -0.010810  8.100801e-05  6.316328e-05   0.018995  0.018995  0.018995    0.999928        0.000555  0.992498      0.138117         8.258902
3  -0.023457    -0.020840  0.023457   0.020841  3.405709e-07  2.655487e-07   0.001208  0.001208  0.001208    0.999870        0.000758  0.999883      0.000707         0.525167
4  -0.011268    -0.012984  0.011268   0.012985  1.445938e-07  1.127422e-07   0.000662  0.000662  0.000662    0.999859        0.000876  0.999870      0.000758         0.287747
5  -0.003726    -0.005392  0.003752   0.005412  2.604760e-05  2.030975e-05   0.009577  0.009577  0.009577    0.987747        0.224077  0.992498      0.138117         4.164014
6  -0.002549    -0.004375  0.002567   0.004388  1.751755e-05  1.365872e-05   0.007393  0.007393  0.007393    0.988470        0.231192  0.992498      0.138117         3.214420
7  -0.002152    -0.003370  0.002167   0.003381  1.495660e-05  1.166191e-05   0.005869  0.005869  0.005869    0.983348        0.314330  0.987747      0.224077         2.551768
--------------------------------------------------

TRAFO:
    p_hv_mw  q_hv_mvar   p_lv_mw  q_lv_mvar    pl_mw  ql_mvar   i_hv_ka   i_lv_ka  vm_hv_pu  va_hv_degree  vm_lv_pu  va_lv_degree  loading_percent
0  0.007422   0.011873 -0.007412  -0.010874  0.00001    0.001  0.000539  0.018995  0.999928      0.000548  0.999928      0.000555         0.140033
1  0.041269   0.045843 -0.041259  -0.041843  0.00001    0.004  0.000509  0.002262  1.000000      0.000000  1.000000      0.000006         0.154206
--------------------------------------------------
